54

C         13.56855       11.51415        0.76991
N         13.56747       10.04279        0.76931
N         12.38329       12.12821        0.77016
C         12.36337       13.45813        0.77078
C         11.28352       15.47490        0.76977
C         13.56960       15.54676        0.77009
N         10.00928       16.20966        0.76961
N         11.22208       14.14140        0.77018
N         12.40786       16.19450        0.76907
N         13.56951       14.15424        0.77177
N         17.12969        3.87566        0.76873
C         17.12893        5.34684        0.76904
C         15.92211        7.29018        0.77036
C         14.84119        9.30640        0.76928
C         18.33422        7.29109        0.76997
C         17.12776        9.37967        0.76916
C         19.41369        9.30801        0.76944
N         19.47526        7.97448        0.77050
N         18.28935       10.02770        0.76771
N         14.75437       12.12759        0.77023
N         15.96518       10.02642        0.76831
N         17.12790        7.98698        0.77100
N         18.31427        5.96095        0.76820
N         15.94315        5.96012        0.77022
N         14.78019        7.97287        0.76982
C         20.68954       11.51369        0.77000
N         19.50423       12.12763        0.77068
N         20.68822       10.04256        0.76957
N         21.87531       12.12704        0.76980
C         14.77550       13.45766        0.77110
C         15.85607       15.47389        0.77016
C         19.48403       13.45785        0.77087
C         18.40422       15.47456        0.77025
C         21.89639       13.45718        0.77102
C         20.69062       15.54646        0.77064
C         22.97701       15.47348        0.77066
N         14.73188       16.19376        0.76897
N         15.91715       14.14041        0.77106
N         17.12986       16.20996        0.77002
N         19.52859       16.19427        0.77031
N         21.85292       16.19317        0.76967
N         23.03820       14.13967        0.77144
N         20.69038       14.15371        0.77164
N         18.34280       14.14102        0.77015
N         24.25079       16.20970        0.77060
H         10.00875       17.19416        0.76931
H          9.15695       15.71695        0.76980
H         17.98255        3.38385        0.76787
H         16.27734        3.38297        0.76938
H         24.25032       17.19420        0.77004
H         25.10362       15.71785        0.77112
H         12.71454        9.55111        0.76893
H         21.54041        9.54960        0.76937
H         17.12957       17.19446        0.76977
