26
XYZ file
 C    9.178580    5.928680    6.784230
 C    8.288780    6.827330    5.895700
 C    9.184490    7.712870    5.000010
 C   10.068360    6.815530    4.104270
 C   10.956860    5.916830    4.994050
 C    9.160840    4.144480    5.000060
 C   10.062460    5.030020    5.889820
 C    7.388480    5.940480    5.005880
 C    8.271070    5.041840    4.110200
 C    9.166750    5.928710    3.215770
 H    8.541821    5.298140    7.443030
 H    9.819710    6.559260    7.438760
 H    7.653340    7.473351    6.539620
 H    8.552010    8.373790    4.367380
 H    9.825700    8.365280    5.632710
 H   10.712270    7.453100    3.460340
 H   11.619880    6.547200    5.626580
 H   11.607130    5.277700    4.357070
 H    9.789130    3.483580    4.363250
 H    8.523830    3.492070    5.636970
 H   10.702130    4.383980    6.529520
 H    6.729700    5.310070    5.642790
 H    6.733950    6.579590    4.373250
 H    7.622920    4.404290    3.470520
 H    9.795130    5.289790    2.556990
 H    8.534019    6.567690    2.561230

